# LMT6 package for MODFLOW-NWT generated by Flopy 3.7.0.dev0
OUTPUT_FILE_NAME     basepfaslinker.ftl  
OUTPUT_FILE_UNIT             10
OUTPUT_FILE_HEADER   extended            
OUTPUT_FILE_FORMAT   formatted           
PACKAGE_FLOWS ALL
