# NWT package for MODFLOW-NWT generated by Flopy 3.7.0.dev0
 1.000e-04 5.000e+00      5000 1.000e-06         2         1         1    SIMPLE
