# OC package for MODFLOW-NWT generated by Flopy 3.7.0.dev0
HEAD PRINT FORMAT   0
HEAD SAVE UNIT    51
DRAWDOWN PRINT FORMAT   0
COMPACT BUDGET AUX

period 1 step 1 
  save head
  save budget

period 1 step 2 
  save head
  save budget

period 1 step 3 
  save head
  save budget

period 1 step 4 
  save head
  save budget

period 1 step 5 
  save head
  save budget

period 2 step 1 
  save head
  save budget

period 2 step 2 
  save head
  save budget

period 2 step 3 
  save head
  save budget

period 2 step 4 
  save head
  save budget

period 2 step 5 
  save head
  save budget

period 3 step 1 
  save head
  save budget

period 3 step 2 
  save head
  save budget

period 3 step 3 
  save head
  save budget

period 3 step 4 
  save head
  save budget

period 3 step 5 
  save head
  save budget

period 4 step 1 
  save head
  save budget

period 4 step 2 
  save head
  save budget

period 4 step 3 
  save head
  save budget

period 4 step 4 
  save head
  save budget

period 4 step 5 
  save head
  save budget

period 5 step 1 
  save head
  save budget

period 5 step 2 
  save head
  save budget

period 5 step 3 
  save head
  save budget

period 5 step 4 
  save head
  save budget

period 5 step 5 
  save head
  save budget

period 6 step 1 
  save head
  save budget

period 6 step 2 
  save head
  save budget

period 6 step 3 
  save head
  save budget

period 6 step 4 
  save head
  save budget

period 6 step 5 
  save head
  save budget

period 7 step 1 
  save head
  save budget

period 7 step 2 
  save head
  save budget

period 7 step 3 
  save head
  save budget

period 7 step 4 
  save head
  save budget

period 7 step 5 
  save head
  save budget

period 8 step 1 
  save head
  save budget

period 8 step 2 
  save head
  save budget

period 8 step 3 
  save head
  save budget

period 8 step 4 
  save head
  save budget

period 8 step 5 
  save head
  save budget

period 9 step 1 
  save head
  save budget

period 9 step 2 
  save head
  save budget

period 9 step 3 
  save head
  save budget

period 9 step 4 
  save head
  save budget

period 9 step 5 
  save head
  save budget

period 10 step 1 
  save head
  save budget

period 10 step 2 
  save head
  save budget

period 10 step 3 
  save head
  save budget

period 10 step 4 
  save head
  save budget

period 10 step 5 
  save head
  save budget

period 11 step 1 
  save head
  save budget

period 11 step 2 
  save head
  save budget

period 11 step 3 
  save head
  save budget

period 11 step 4 
  save head
  save budget

period 11 step 5 
  save head
  save budget

period 12 step 1 
  save head
  save budget

period 12 step 2 
  save head
  save budget

period 12 step 3 
  save head
  save budget

period 12 step 4 
  save head
  save budget

period 12 step 5 
  save head
  save budget

period 13 step 1 
  save head
  save budget

period 13 step 2 
  save head
  save budget

period 13 step 3 
  save head
  save budget

period 13 step 4 
  save head
  save budget

period 13 step 5 
  save head
  save budget

period 14 step 1 
  save head
  save budget

period 14 step 2 
  save head
  save budget

period 14 step 3 
  save head
  save budget

period 14 step 4 
  save head
  save budget

period 14 step 5 
  save head
  save budget

period 15 step 1 
  save head
  save budget

period 15 step 2 
  save head
  save budget

period 15 step 3 
  save head
  save budget

period 15 step 4 
  save head
  save budget

period 15 step 5 
  save head
  save budget

period 16 step 1 
  save head
  save budget

period 16 step 2 
  save head
  save budget

period 16 step 3 
  save head
  save budget

period 16 step 4 
  save head
  save budget

period 16 step 5 
  save head
  save budget

period 17 step 1 
  save head
  save budget

period 17 step 2 
  save head
  save budget

period 17 step 3 
  save head
  save budget

period 17 step 4 
  save head
  save budget

period 17 step 5 
  save head
  save budget

period 18 step 1 
  save head
  save budget

period 18 step 2 
  save head
  save budget

period 18 step 3 
  save head
  save budget

period 18 step 4 
  save head
  save budget

period 18 step 5 
  save head
  save budget

period 19 step 1 
  save head
  save budget

period 19 step 2 
  save head
  save budget

period 19 step 3 
  save head
  save budget

period 19 step 4 
  save head
  save budget

period 19 step 5 
  save head
  save budget

period 20 step 1 
  save head
  save budget

period 20 step 2 
  save head
  save budget

period 20 step 3 
  save head
  save budget

period 20 step 4 
  save head
  save budget

period 20 step 5 
  save head
  save budget

period 21 step 1 
  save head
  save budget

period 21 step 2 
  save head
  save budget

period 21 step 3 
  save head
  save budget

period 21 step 4 
  save head
  save budget

period 21 step 5 
  save head
  save budget

period 22 step 1 
  save head
  save budget

period 22 step 2 
  save head
  save budget

period 22 step 3 
  save head
  save budget

period 22 step 4 
  save head
  save budget

period 22 step 5 
  save head
  save budget

period 23 step 1 
  save head
  save budget

period 23 step 2 
  save head
  save budget

period 23 step 3 
  save head
  save budget

period 23 step 4 
  save head
  save budget

period 23 step 5 
  save head
  save budget

period 24 step 1 
  save head
  save budget

period 24 step 2 
  save head
  save budget

period 24 step 3 
  save head
  save budget

period 24 step 4 
  save head
  save budget

period 24 step 5 
  save head
  save budget

period 25 step 1 
  save head
  save budget

period 25 step 2 
  save head
  save budget

period 25 step 3 
  save head
  save budget

period 25 step 4 
  save head
  save budget

period 25 step 5 
  save head
  save budget

period 26 step 1 
  save head
  save budget

period 26 step 2 
  save head
  save budget

period 26 step 3 
  save head
  save budget

period 26 step 4 
  save head
  save budget

period 26 step 5 
  save head
  save budget

period 27 step 1 
  save head
  save budget

period 27 step 2 
  save head
  save budget

period 27 step 3 
  save head
  save budget

period 27 step 4 
  save head
  save budget

period 27 step 5 
  save head
  save budget

period 28 step 1 
  save head
  save budget

period 28 step 2 
  save head
  save budget

period 28 step 3 
  save head
  save budget

period 28 step 4 
  save head
  save budget

period 28 step 5 
  save head
  save budget

period 29 step 1 
  save head
  save budget

period 29 step 2 
  save head
  save budget

period 29 step 3 
  save head
  save budget

period 29 step 4 
  save head
  save budget

period 29 step 5 
  save head
  save budget

period 30 step 1 
  save head
  save budget

period 30 step 2 
  save head
  save budget

period 30 step 3 
  save head
  save budget

period 30 step 4 
  save head
  save budget

period 30 step 5 
  save head
  save budget

period 31 step 1 
  save head
  save budget

period 31 step 2 
  save head
  save budget

period 31 step 3 
  save head
  save budget

period 31 step 4 
  save head
  save budget

period 31 step 5 
  save head
  save budget

period 32 step 1 
  save head
  save budget

period 32 step 2 
  save head
  save budget

period 32 step 3 
  save head
  save budget

period 32 step 4 
  save head
  save budget

period 32 step 5 
  save head
  save budget

period 33 step 1 
  save head
  save budget

period 33 step 2 
  save head
  save budget

period 33 step 3 
  save head
  save budget

period 33 step 4 
  save head
  save budget

period 33 step 5 
  save head
  save budget

period 34 step 1 
  save head
  save budget

period 34 step 2 
  save head
  save budget

period 34 step 3 
  save head
  save budget

period 34 step 4 
  save head
  save budget

period 34 step 5 
  save head
  save budget

period 35 step 1 
  save head
  save budget

period 35 step 2 
  save head
  save budget

period 35 step 3 
  save head
  save budget

period 35 step 4 
  save head
  save budget

period 35 step 5 
  save head
  save budget

period 36 step 1 
  save head
  save budget

period 36 step 2 
  save head
  save budget

period 36 step 3 
  save head
  save budget

period 36 step 4 
  save head
  save budget

period 36 step 5 
  save head
  save budget

period 37 step 1 
  save head
  save budget

period 37 step 2 
  save head
  save budget

period 37 step 3 
  save head
  save budget

period 37 step 4 
  save head
  save budget

period 37 step 5 
  save head
  save budget

period 38 step 1 
  save head
  save budget

period 38 step 2 
  save head
  save budget

period 38 step 3 
  save head
  save budget

period 38 step 4 
  save head
  save budget

period 38 step 5 
  save head
  save budget

period 39 step 1 
  save head
  save budget

period 39 step 2 
  save head
  save budget

period 39 step 3 
  save head
  save budget

period 39 step 4 
  save head
  save budget

period 39 step 5 
  save head
  save budget

period 40 step 1 
  save head
  save budget

period 40 step 2 
  save head
  save budget

period 40 step 3 
  save head
  save budget

period 40 step 4 
  save head
  save budget

period 40 step 5 
  save head
  save budget

