# HOB package for MODFLOW-NWT generated by Flopy 3.7.0.dev0
        60         0         0       210      -888
         1
s1                      1        200        245         19               1460.0     0.0000     0.0000    75.3496   # DATASET 3 - Observation 1
s2                      1        148        255         19               1460.0     0.0000     0.0000    78.3387   # DATASET 3 - Observation 2
s3                      1        183        186         19               1460.0     0.0000     0.0000    77.6606   # DATASET 3 - Observation 3
s4                      1        246        237         19               1460.0     0.0000     0.0000    63.5858   # DATASET 3 - Observation 4
MW1                     1        236        208         19               1460.0     0.0000     0.0000    73.1520   # DATASET 3 - Observation 5
MW2                     3        236        208         19               1460.0     0.0000     0.0000     2.5000   # DATASET 3 - Observation 6
SS1                     1         10        189         20               1095.0     0.0000     0.0000    62.8404   # DATASET 3 - Observation 7
SS2                     1          3        177         20               1095.0     0.0000     0.0000    60.3001   # DATASET 3 - Observation 8
SS3                     1         12        239         20               1095.0     0.0000     0.0000    55.5882   # DATASET 3 - Observation 9
SS4                     1         97        181         20               1095.0     0.0000     0.0000    66.5728   # DATASET 3 - Observation 10
SS5                     1         84        144         20               1095.0     0.0000     0.0000    60.5876   # DATASET 3 - Observation 11
SS6                     1         87        102         20               1095.0     0.0000     0.0000    57.2431   # DATASET 3 - Observation 12
SS7                     1         87         89         20               1095.0     0.0000     0.0000    55.9913   # DATASET 3 - Observation 13
SS8                     1         90         64         20               1095.0     0.0000     0.0000    52.5027   # DATASET 3 - Observation 14
SS9                     1        101         37         20               1095.0     0.0000     0.0000    48.8173   # DATASET 3 - Observation 15
SS10                    1        126         20         20               1095.0     0.0000     0.0000    43.4218   # DATASET 3 - Observation 16
SS11                    1        157          6         20               1095.0     0.0000     0.0000    38.9133   # DATASET 3 - Observation 17
SS12                    1        153         37         20               1095.0     0.0000     0.0000    48.7251   # DATASET 3 - Observation 18
SS13                    1        176          6         20               1095.0     0.0000     0.0000    38.7421   # DATASET 3 - Observation 19
SS14                    1        279        153         20               1095.0     0.0000     0.0000    69.0941   # DATASET 3 - Observation 20
SS15                    1        283        122         20               1095.0     0.0000     0.0000    61.6459   # DATASET 3 - Observation 21
SS16                    1        296         97         20               1095.0     0.0000     0.0000    57.9177   # DATASET 3 - Observation 22
SS17                    1        301         62         20               1095.0     0.0000     0.0000    54.3469   # DATASET 3 - Observation 23
SS18                    1        315         31         20               1095.0     0.0000     0.0000    48.6869   # DATASET 3 - Observation 24
SS19                    1        329         12         20               1095.0     0.0000     0.0000    45.2842   # DATASET 3 - Observation 25
SS20                    1        340         90         20               1095.0     0.0000     0.0000    58.6706   # DATASET 3 - Observation 26
SS21                    1        315        287         20               1095.0     0.0000     0.0000    51.5212   # DATASET 3 - Observation 27
SS22                    1        318        335         20               1095.0     0.0000     0.0000    51.4630   # DATASET 3 - Observation 28
SS23                    1        334        310         20               1095.0     0.0000     0.0000    46.1978   # DATASET 3 - Observation 29
SS24                    1         27        319         20               1095.0     0.0000     0.0000    52.0079   # DATASET 3 - Observation 30
SS25                    1         28        335         20               1095.0     0.0000     0.0000    48.5098   # DATASET 3 - Observation 31
SS26                    1         22        351         20               1095.0     0.0000     0.0000    42.0845   # DATASET 3 - Observation 32
SS27                    1         16        368         20               1095.0     0.0000     0.0000    37.6349   # DATASET 3 - Observation 33
SS28                    1         24        394         20               1095.0     0.0000     0.0000    31.2610   # DATASET 3 - Observation 34
SS29                    1         20        427         20               1095.0     0.0000     0.0000    21.7915   # DATASET 3 - Observation 35
SS30                    1         11        453         20               1095.0     0.0000     0.0000    14.8399   # DATASET 3 - Observation 36
SS31                    1         11        474         20               1095.0     0.0000     0.0000    11.9340   # DATASET 3 - Observation 37
SS32                    1         44        514         20               1095.0     0.0000     0.0000     9.5088   # DATASET 3 - Observation 38
SS33                    1         71        529         20               1095.0     0.0000     0.0000     8.3644   # DATASET 3 - Observation 39
SS34                    1         72        487         20               1095.0     0.0000     0.0000    15.7606   # DATASET 3 - Observation 40
SS35                    1         83        463         20               1095.0     0.0000     0.0000    22.1809   # DATASET 3 - Observation 41
SS36                    1         92        435         20               1095.0     0.0000     0.0000    30.6967   # DATASET 3 - Observation 42
SS37                    1        115        418         20               1095.0     0.0000     0.0000    34.8194   # DATASET 3 - Observation 43
SS38                    1        139        405         20               1095.0     0.0000     0.0000    39.5820   # DATASET 3 - Observation 44
SS39                    1        138        381         20               1095.0     0.0000     0.0000    42.7262   # DATASET 3 - Observation 45
SS40                    1        135        356         20               1095.0     0.0000     0.0000    47.9183   # DATASET 3 - Observation 46
SS41                    1        159        411         20               1095.0     0.0000     0.0000    37.3233   # DATASET 3 - Observation 47
SS42                    1        159        411         20               1095.0     0.0000     0.0000    37.3233   # DATASET 3 - Observation 48
SS43                    1        156        472         20               1095.0     0.0000     0.0000    25.2622   # DATASET 3 - Observation 49
SS44                    1        154        493         20               1095.0     0.0000     0.0000    20.7017   # DATASET 3 - Observation 50
SS45                    1        150        511         20               1095.0     0.0000     0.0000    19.4573   # DATASET 3 - Observation 51
SS46                    1        193        363         20               1095.0     0.0000     0.0000    43.5045   # DATASET 3 - Observation 52
SS47                    1        217        385         20               1095.0     0.0000     0.0000    35.5031   # DATASET 3 - Observation 53
SS48                    1        230        409         20               1095.0     0.0000     0.0000    29.4605   # DATASET 3 - Observation 54
SS49                    1        252        439         20               1095.0     0.0000     0.0000    22.7052   # DATASET 3 - Observation 55
SS50                    1        267        508         20               1095.0     0.0000     0.0000    14.0780   # DATASET 3 - Observation 56
SS51                    1        303        409         20               1095.0     0.0000     0.0000    42.7543   # DATASET 3 - Observation 57
SS52                    1        314        457         20               1095.0     0.0000     0.0000    36.1703   # DATASET 3 - Observation 58
SS53                    1        312        485         20               1095.0     0.0000     0.0000    26.8608   # DATASET 3 - Observation 59
SS54                    1        326        516         20               1095.0     0.0000     0.0000    25.1782   # DATASET 3 - Observation 60
