# SFR package for MODFLOW-NWT generated by Flopy 3.7.0.dev0
OPTIONS
REACHINPUT
END
1594 7 0 0 86400.00000000 0.00010000 53 37 1 
1 243 208 1 1 32.544 66.86692 0.004927017 1.0 40.0
1 242 208 1 2 32.544 66.61558 0.004927017 1.0 40.0
1 241 208 1 3 32.544 66.24905 0.004927017 1.0 40.0
1 241 209 1 4 32.544 65.50327 0.004927017 1.0 40.0
1 240 209 1 5 32.544 65.0575 0.004927017 1.0 40.0
1 239 209 1 6 32.544 64.52702 0.004927017 1.0 40.0
1 238 209 1 7 32.544 63.804745 0.004927017 1.0 40.0
1 237 209 1 8 18.984 63.216972 0.004927017 1.0 40.0
1 237 210 1 9 18.984 62.785378 0.004927017 1.0 40.0
1 236 210 1 10 18.984 62.26931 0.004927017 1.0 40.0
1 236 211 1 11 18.984 61.88241 0.004927017 1.0 40.0
1 235 211 1 12 13.56 61.4603 0.004927017 1.0 40.0
1 235 212 1 13 32.544 61.124126 0.004927017 1.0 40.0
1 235 213 1 14 32.544 60.80809 0.004927017 1.0 40.0
1 234 213 1 15 32.544 60.5145 0.004927017 1.0 40.0
1 234 214 1 16 32.544 60.293377 0.004927017 1.0 40.0
1 233 214 1 17 32.544 60.08089 0.004927017 1.0 40.0
1 233 215 1 18 32.544 59.95903 0.004927017 1.0 40.0
1 233 216 1 19 32.544 59.88499 0.004927017 1.0 40.0
1 232 216 1 20 32.544 59.80714 0.004927017 1.0 40.0
1 232 217 1 21 32.544 59.848324 0.004927017 1.0 40.0
1 232 218 1 22 32.544 59.938496 0.004927017 1.0 40.0
1 231 218 1 23 13.56 59.975697 0.004927017 1.0 40.0
1 231 219 1 24 32.544 60.152275 0.004927017 1.0 40.0
1 230 219 1 25 18.984 60.207096 0.004927017 1.0 40.0
1 230 220 1 26 13.56 60.477745 0.004927017 1.0 40.0
1 229 220 1 27 32.544 60.47063 0.004927017 1.0 40.0
1 229 221 1 28 18.984 60.760406 0.004927017 1.0 40.0
1 228 221 1 29 18.984 60.71188 0.004927017 1.0 40.0
1 228 222 1 30 29.832 60.972454 0.004927017 1.0 40.0
1 228 223 1 31 29.832 61.18626 0.004927017 1.0 40.0
1 228 224 1 32 37.968 61.352077 0.002451679 1.0 40.0
1 228 225 1 33 37.968 61.384064 0.002451679 1.0 40.0
1 229 225 1 34 37.968 61.383545 0.002451679 1.0 40.0
1 229 226 1 35 37.968 61.303604 0.002451679 1.0 40.0
1 230 226 1 36 37.968 61.190533 0.002451679 1.0 40.0
1 230 227 1 37 37.968 60.999332 0.002451679 1.0 40.0
1 231 227 1 38 37.968 60.72693 0.002451679 1.0 40.0
1 231 228 1 39 37.968 60.447796 0.002451679 1.0 40.0
1 232 228 1 40 37.968 60.15049 0.002451679 1.0 40.0
1 232 229 1 41 37.968 59.813854 0.002451679 1.0 40.0
1 233 229 1 42 37.968 59.488415 0.002451679 1.0 40.0
1 233 230 1 43 37.968 59.12639 0.002451679 1.0 40.0
1 234 230 1 44 37.968 58.802464 0.002451679 1.0 40.0
1 234 231 1 45 37.968 58.44164 0.002451679 1.0 40.0
1 235 231 1 46 37.968 58.13997 0.002451679 1.0 40.0
1 235 232 1 47 37.968 57.71974 0.002451679 1.0 40.0
1 235 233 1 48 37.968 57.379013 0.002451679 1.0 40.0
1 236 233 1 49 37.968 57.155045 0.002451679 1.0 40.0
1 236 234 1 50 37.968 56.859077 0.002451679 1.0 40.0
1 237 234 1 51 37.968 56.67336 0.002451679 1.0 40.0
1 237 235 1 52 37.968 56.427067 0.002451679 1.0 40.0
1 238 235 1 53 37.968 56.281277 0.002451679 1.0 40.0
1 238 236 1 54 37.968 56.08791 0.002451679 1.0 40.0
1 238 237 1 55 37.968 55.919346 0.002451679 1.0 40.0
1 239 237 1 56 37.968 55.8329 0.002451679 1.0 40.0
1 239 238 1 57 37.968 55.73005 0.002451679 1.0 40.0
1 240 238 1 58 37.968 55.696354 0.002451679 1.0 40.0
1 240 239 1 59 37.968 55.65322 0.002451679 1.0 40.0
1 240 240 1 60 37.968 55.64562 0.002451679 1.0 40.0
1 241 240 1 61 37.968 55.691536 0.002451679 1.0 40.0
1 241 241 1 62 37.968 55.74408 0.002451679 1.0 40.0
1 242 241 1 63 37.968 55.8268 0.002451679 1.0 40.0
1 242 242 1 64 37.968 55.936993 0.002451679 1.0 40.0
1 243 242 1 65 37.968 56.049706 0.002451679 1.0 40.0
1 243 243 1 66 37.968 56.210354 0.002451679 1.0 40.0
1 243 244 1 67 37.968 56.373352 0.002451679 1.0 40.0
1 244 244 1 68 37.968 56.536346 0.002451679 1.0 40.0
1 244 245 1 69 37.968 56.717384 0.002451679 1.0 40.0
1 245 245 1 70 37.968 56.869263 0.002451679 1.0 40.0
1 245 246 1 71 37.968 57.03808 0.002451679 1.0 40.0
1 245 247 1 72 37.968 57.166412 0.002451679 1.0 40.0
1 246 247 1 73 37.968 57.312717 0.002451679 1.0 40.0
1 246 248 1 74 37.968 57.32405 0.002451679 1.0 40.0
1 246 249 1 75 37.968 57.2339 0.002451679 1.0 40.0
1 246 250 1 76 37.968 57.042664 0.002451679 1.0 40.0
1 247 250 1 77 37.968 57.049522 0.002451679 1.0 40.0
1 247 251 1 78 37.968 56.764668 0.002451679 1.0 40.0
1 247 252 1 79 37.968 56.40892 0.002451679 1.0 40.0
1 248 252 1 80 37.968 56.324875 0.002451679 1.0 40.0
1 248 253 1 81 37.968 55.9285 0.002451679 1.0 40.0
1 248 254 1 82 37.968 55.51179 0.002451679 1.0 40.0
1 249 254 1 83 37.968 55.380756 0.002451679 1.0 40.0
1 249 255 1 84 37.968 54.889496 0.002451679 1.0 40.0
1 249 256 1 85 37.968 54.5154 0.002451679 1.0 40.0
1 250 256 1 86 27.12 54.38874 0.002451679 1.0 40.0
1 250 257 1 87 27.12 54.072803 0.002451679 1.0 40.0
1 250 258 1 88 27.12 53.770405 0.003077679 1.0 40.0
1 250 259 1 89 27.12 53.53404 0.003077679 1.0 40.0
1 250 260 1 90 27.12 53.34535 0.003077679 1.0 40.0
1 249 260 1 91 27.12 53.387356 0.003077679 1.0 40.0
1 249 261 1 92 29.832 53.243553 0.003077679 1.0 40.0
1 249 262 1 93 29.832 53.15336 0.003077679 1.0 40.0
1 249 263 1 94 32.544 53.11896 0.003077679 1.0 40.0
1 249 264 1 95 32.544 53.143875 0.003077679 1.0 40.0
1 248 264 1 96 32.544 53.181133 0.003077679 1.0 40.0
1 248 265 1 97 32.544 53.266544 0.003077679 1.0 40.0
1 248 266 1 98 32.544 53.39721 0.003077679 1.0 40.0
1 248 267 1 99 32.544 53.56384 0.003077679 1.0 40.0
1 247 267 1 100 32.544 53.610897 0.003077679 1.0 40.0
1 247 268 1 101 32.544 53.814327 0.003077679 1.0 40.0
1 247 269 1 102 32.544 54.022285 0.003077679 1.0 40.0
1 247 270 1 103 32.544 54.258175 0.003077679 1.0 40.0
1 246 270 1 104 32.544 54.27512 0.003077679 1.0 40.0
1 246 271 1 105 32.544 54.405743 0.003077679 1.0 40.0
1 246 272 1 106 32.544 54.458897 0.003077679 1.0 40.0
1 246 273 1 107 32.544 54.41812 0.003077679 1.0 40.0
1 245 273 1 108 32.544 54.31774 0.003077679 1.0 40.0
1 245 274 1 109 32.544 54.18073 0.003077679 1.0 40.0
1 245 275 1 110 32.544 53.955765 0.003077679 1.0 40.0
1 244 275 1 111 32.544 53.78655 0.003077679 1.0 40.0
1 244 276 1 112 32.544 53.505768 0.003077679 1.0 40.0
1 244 277 1 113 32.544 53.17955 0.003077679 1.0 40.0
1 244 278 1 114 32.544 52.74894 0.003077679 1.0 40.0
1 244 279 1 115 32.544 52.401592 0.003077679 1.0 40.0
1 243 279 1 116 13.56 52.283566 0.003077679 1.0 40.0
1 243 280 1 117 13.56 51.993996 0.003077679 1.0 40.0
1 243 281 1 118 29.832 51.723602 0.003077679 1.0 40.0
1 243 282 1 119 29.832 51.495373 0.003077679 1.0 40.0
1 243 283 1 120 29.832 51.316795 0.003077679 1.0 40.0
1 242 283 1 121 29.832 51.23973 0.003077679 1.0 40.0
1 242 284 1 122 29.832 51.128304 0.003077679 1.0 40.0
1 242 285 1 123 29.832 51.07216 0.003077679 1.0 40.0
1 242 286 1 124 29.832 51.087494 0.003077679 1.0 40.0
1 242 287 1 125 29.832 51.156666 0.003077679 1.0 40.0
1 242 288 1 126 29.832 51.274563 0.003077679 1.0 40.0
1 242 289 1 127 29.832 51.430668 0.003077679 1.0 40.0
1 242 290 1 128 29.832 51.609135 0.003077679 1.0 40.0
1 242 291 1 129 29.832 51.78905 0.003077679 1.0 40.0
1 242 292 1 130 29.832 51.946087 0.003077679 1.0 40.0
1 242 293 1 131 29.832 52.07897 0.003077679 1.0 40.0
1 242 294 1 132 35.256 52.09566 0.001724023 1.0 40.0
1 242 295 1 133 27.12 52.046093 0.001724023 1.0 40.0
1 243 295 1 134 13.56 52.074924 0.001724023 1.0 40.0
1 243 296 1 135 37.968 51.93493 0.001724023 1.0 40.0
1 243 297 1 136 37.968 51.717735 0.001724023 1.0 40.0
1 244 297 1 137 37.968 51.654144 0.001724023 1.0 40.0
1 244 298 1 138 37.968 51.378075 0.001724023 1.0 40.0
1 245 298 1 139 37.968 51.25146 0.001724023 1.0 40.0
1 245 299 1 140 37.968 50.94289 0.001724023 1.0 40.0
1 246 299 1 141 37.968 50.732925 0.001724023 1.0 40.0
1 246 300 1 142 37.968 50.42149 0.001724023 1.0 40.0
1 247 300 1 143 37.968 50.231525 0.001724023 1.0 40.0
1 248 300 1 144 37.968 50.02001 0.001724023 1.0 40.0
1 248 301 1 145 37.968 49.677788 0.001724023 1.0 40.0
1 249 301 1 146 32.544 49.489212 0.001724023 1.0 40.0
1 249 302 1 147 32.544 49.23432 0.001724023 1.0 40.0
1 250 302 1 148 18.984 49.072384 0.001724023 1.0 40.0
1 251 302 1 149 21.696 48.911148 0.001724023 1.0 40.0
1 251 303 1 150 21.696 48.706085 0.001724023 1.0 40.0
1 252 303 1 151 24.408 48.569736 0.001724023 1.0 40.0
1 252 304 1 152 24.408 48.385014 0.001724023 1.0 40.0
1 253 304 1 153 27.12 48.27275 0.001724023 1.0 40.0
1 253 305 1 154 8.136 48.115997 0.001724023 1.0 40.0
1 254 305 1 155 35.256 48.006275 0.001724023 1.0 40.0
1 254 306 1 156 37.968 47.85962 0.001724023 1.0 40.0
1 255 306 1 157 37.968 47.79113 0.001724023 1.0 40.0
1 255 307 1 158 37.968 47.66279 0.001724023 1.0 40.0
1 256 307 1 159 37.968 47.615894 0.001724023 1.0 40.0
1 256 308 1 160 37.968 47.50509 0.001724023 1.0 40.0
1 257 308 1 161 37.968 47.479248 0.001724023 1.0 40.0
1 257 309 1 162 37.968 47.36681 0.001724023 1.0 40.0
1 258 309 1 163 37.968 47.36523 0.001724023 1.0 40.0
1 258 310 1 164 5.424 47.30327 0.001724023 1.0 40.0
1 259 310 1 165 37.968 47.32359 0.001724023 1.0 40.0
1 259 311 1 166 37.968 47.263042 0.001724023 1.0 40.0
1 260 311 1 167 37.968 47.30666 0.001724023 1.0 40.0
1 261 311 1 168 37.968 47.360764 0.001724023 1.0 40.0
1 261 312 1 169 18.984 47.338146 0.001724023 1.0 40.0
1 262 312 1 170 21.696 47.45175 0.001724023 1.0 40.0
1 262 313 1 171 21.696 47.445736 0.001724023 1.0 40.0
1 263 313 1 172 21.696 47.564297 0.001724023 1.0 40.0
1 264 313 1 173 21.696 47.69386 0.001724023 1.0 40.0
1 264 314 1 174 8.136 47.720673 0.001724023 1.0 40.0
1 265 314 1 175 37.968 47.87006 0.001724023 1.0 40.0
1 266 314 1 176 2.712 48.039986 0.001724023 1.0 40.0
1 266 315 1 177 37.968 48.069405 0.001724023 1.0 40.0
1 267 315 1 178 13.56 48.248554 0.001724023 1.0 40.0
1 267 316 1 179 27.12 48.26155 0.001724023 1.0 40.0
1 268 316 1 180 27.12 48.432686 0.001724023 1.0 40.0
1 268 317 1 181 5.424 48.401024 0.001724023 1.0 40.0
1 269 317 1 182 37.968 48.571213 0.001724023 1.0 40.0
1 270 317 1 183 5.424 48.665737 0.001724023 1.0 40.0
1 270 318 1 184 32.544 48.557045 0.001724023 1.0 40.0
1 271 318 1 185 32.544 48.576313 0.001724023 1.0 40.0
1 271 319 1 186 27.12 48.410294 0.001724023 1.0 40.0
1 272 319 1 187 27.12 48.369152 0.001724023 1.0 40.0
1 273 319 1 188 27.12 48.27081 0.001724023 1.0 40.0
1 273 318 1 189 27.12 48.405033 0.001724023 1.0 40.0
1 274 318 1 190 27.12 48.199894 0.004219269 1.0 40.0
1 275 318 1 191 5.424 48.008507 0.004219269 1.0 40.0
1 275 317 1 192 37.968 48.04512 0.004219269 1.0 40.0
1 276 317 1 193 8.136 47.819466 0.004219269 1.0 40.0
1 276 316 1 194 37.968 47.805023 0.004219269 1.0 40.0
1 276 315 1 195 8.136 47.77036 0.004219269 1.0 40.0
1 277 315 1 196 27.12 47.474426 0.004219269 1.0 40.0
1 277 314 1 197 32.544 47.397697 0.004219269 1.0 40.0
1 278 314 1 198 8.136 47.199944 0.004219269 1.0 40.0
1 278 313 1 199 37.968 47.116932 0.004219269 1.0 40.0
1 278 312 1 200 13.56 47.05252 0.004219269 1.0 40.0
1 279 312 1 201 35.256 46.87612 0.004219269 1.0 40.0
1 279 311 1 202 37.968 46.80341 0.004219269 1.0 40.0
1 280 311 1 203 5.424 46.68967 0.004219269 1.0 40.0
1 280 310 1 204 35.256 46.639565 0.004219269 1.0 40.0
1 280 309 1 205 13.56 46.61964 0.004219269 1.0 40.0
1 281 309 1 206 27.12 46.51903 0.004219269 1.0 40.0
1 281 308 1 207 27.12 46.507397 0.004219269 1.0 40.0
1 282 308 1 208 27.12 46.423656 0.004219269 1.0 40.0
1 282 307 1 209 13.56 46.438274 0.004219269 1.0 40.0
1 283 307 1 210 27.12 46.36318 0.004219269 1.0 40.0
1 284 307 1 211 27.12 46.29398 0.004219269 1.0 40.0
1 285 307 1 212 27.12 46.210064 0.003269588 1.0 40.0
1 286 307 1 213 27.12 46.16818 0.003269588 1.0 40.0
1 286 308 1 214 8.136 46.137615 0.003269588 1.0 40.0
1 287 308 1 215 27.12 46.110912 0.003269588 1.0 40.0
1 288 308 1 216 27.12 46.09402 0.003269588 1.0 40.0
1 289 308 1 217 27.12 46.082657 0.003269588 1.0 40.0
1 290 308 1 218 27.12 46.06997 0.003269588 1.0 40.0
1 291 308 1 219 27.12 46.047607 0.003269588 1.0 40.0
1 292 308 1 220 27.12 46.0002 0.003269588 1.0 40.0
1 293 308 1 221 27.12 45.93209 0.003269588 1.0 40.0
1 294 308 1 222 27.12 45.84077 0.003269588 1.0 40.0
1 295 308 1 223 8.136 45.745342 0.003269588 1.0 40.0
1 295 307 1 224 32.544 45.74755 0.003269588 1.0 40.0
1 296 307 1 225 32.544 45.6157 0.003269588 1.0 40.0
1 297 307 1 226 32.544 45.47334 0.003269588 1.0 40.0
1 298 307 1 227 32.544 45.32591 0.003269588 1.0 40.0
1 299 307 1 228 16.272 45.191807 0.003269588 1.0 40.0
1 299 306 1 229 16.272 45.195564 0.003269588 1.0 40.0
1 300 306 1 230 32.544 45.02067 0.003269588 1.0 40.0
1 301 306 1 231 32.544 44.882946 0.003269588 1.0 40.0
1 302 306 1 232 32.544 44.755585 0.003269588 1.0 40.0
1 303 306 1 233 32.544 44.641705 0.003269588 1.0 40.0
1 304 306 1 234 5.424 44.566914 0.003269588 1.0 40.0
1 304 305 1 235 32.544 44.550583 0.003269588 1.0 40.0
1 305 305 1 236 32.544 44.468426 0.003269588 1.0 40.0
1 306 305 1 237 32.544 44.405296 0.003269588 1.0 40.0
1 307 305 1 238 32.544 44.35994 0.003269588 1.0 40.0
1 308 305 1 239 8.136 44.34967 0.003269588 1.0 40.0
1 308 304 1 240 32.544 44.335255 0.003269588 1.0 40.0
1 309 304 1 241 32.544 44.312016 0.003269588 1.0 40.0
1 310 304 1 242 32.544 44.290684 0.003269588 1.0 40.0
1 311 304 1 243 32.544 44.25271 0.002430787 1.0 40.0
1 312 304 1 244 32.544 44.227978 0.002430787 1.0 40.0
1 313 304 1 245 32.544 44.19396 0.002430787 1.0 40.0
1 314 304 1 246 32.544 44.149662 0.002430787 1.0 40.0
1 315 304 1 247 32.544 44.08464 0.002430787 1.0 40.0
1 316 304 1 248 32.544 44.017002 0.002430787 1.0 40.0
1 317 304 1 249 32.544 43.939445 0.002430787 1.0 40.0
1 318 304 1 250 32.544 43.852325 0.002430787 1.0 40.0
1 319 304 1 251 32.544 43.756004 0.002430787 1.0 40.0
1 320 304 1 252 5.424 43.66782 0.002430787 1.0 40.0
1 320 305 1 253 32.544 43.600685 0.002430787 1.0 40.0
1 321 305 1 254 32.544 43.485218 0.002430787 1.0 40.0
1 322 305 1 255 32.544 43.362213 0.002430787 1.0 40.0
1 323 305 1 256 32.544 43.203865 0.002430787 1.0 40.0
1 324 305 1 257 32.544 43.066433 0.002430787 1.0 40.0
1 325 305 1 258 16.272 42.934566 0.002430787 1.0 40.0
1 325 306 1 259 16.272 42.8768 0.002430787 1.0 40.0
1 326 306 1 260 35.256 42.728096 0.002430787 1.0 40.0
1 327 306 1 261 35.256 42.57836 0.002430787 1.0 40.0
1 328 306 1 262 35.256 42.430786 0.002430787 1.0 40.0
1 329 306 1 263 5.424 42.308205 0.002430787 1.0 40.0
1 329 307 1 264 35.256 42.242283 0.002430787 1.0 40.0
1 330 307 1 265 35.256 42.109966 0.002430787 1.0 40.0
1 331 307 1 266 35.256 41.975433 0.002430787 1.0 40.0
1 332 307 1 267 35.256 41.890663 0.002430787 1.0 40.0
1 333 307 1 268 16.272 41.84562 0.002430787 1.0 40.0
1 333 308 1 269 18.984 41.80769 0.002430787 1.0 40.0
1 334 308 1 270 32.544 41.781506 0.002430787 1.0 40.0
1 335 308 1 271 32.544 41.777493 0.002430787 1.0 40.0
1 335 307 1 272 8.136 41.75562 0.003990293 1.0 40.0
1 336 307 1 273 37.968 41.739067 0.003990293 1.0 40.0
1 337 307 1 274 29.832 41.728764 0.003990293 1.0 40.0
1 338 307 1 275 8.136 41.7268 0.003990293 1.0 40.0
1 338 306 1 276 29.832 41.696533 0.003990293 1.0 40.0
1 339 306 1 277 29.832 41.63482 0.003990293 1.0 40.0
1 340 306 1 278 29.832 41.54852 0.003990293 1.0 40.0
1 341 306 1 279 29.832 41.438507 0.003990293 1.0 40.0
1 342 306 1 280 29.832 41.308514 0.003990293 1.0 40.0
1 343 306 1 281 8.136 41.186977 0.003990293 1.0 40.0
1 343 305 1 282 35.256 41.07831 0.003990293 1.0 40.0
1 344 305 1 283 35.256 40.906143 0.003990293 1.0 40.0
1 345 306 1 284 21.696 40.859512 0.003990293 1.0 40.0
1 160 156 2 1 18.984 69.77619 0.002434927 1.0 40.0
1 160 155 2 2 18.984 70.28409 0.002434927 1.0 40.0
1 161 155 2 3 35.256 70.62399 0.002434927 1.0 40.0
1 161 154 2 4 35.256 71.16876 0.002434927 1.0 40.0
1 162 154 2 5 18.984 71.44751 0.002434927 1.0 40.0
1 162 153 2 6 35.256 71.739716 0.002434927 1.0 40.0
1 162 152 2 7 16.272 71.86732 0.002434927 1.0 40.0
1 163 152 2 8 18.984 71.897995 0.002434927 1.0 40.0
1 163 151 2 9 35.256 71.822395 0.002434927 1.0 40.0
1 163 150 2 10 13.56 71.572586 0.002434927 1.0 40.0
1 164 150 2 11 21.696 71.41704 0.002434927 1.0 40.0
1 164 149 2 12 35.256 71.00196 0.002434927 1.0 40.0
1 165 149 2 13 5.424 70.71443 0.002434927 1.0 40.0
1 165 148 2 14 37.968 70.21191 0.002434927 1.0 40.0
1 165 147 2 15 18.984 69.65513 0.002434927 1.0 40.0
1 166 147 2 16 18.984 69.33678 0.002434927 1.0 40.0
1 166 146 2 17 37.968 68.67903 0.002434927 1.0 40.0
1 166 145 2 18 5.424 68.19333 0.002434927 1.0 40.0
1 167 145 2 19 37.968 67.95652 0.002434927 1.0 40.0
1 167 144 2 20 16.272 67.58209 0.002434927 1.0 40.0
1 168 144 2 21 18.984 67.41325 0.002434927 1.0 40.0
1 168 143 2 22 37.968 67.15974 0.002434927 1.0 40.0
1 168 142 2 23 10.848 66.98892 0.002434927 1.0 40.0
1 169 142 2 24 27.12 66.96516 0.002434927 1.0 40.0
1 169 141 2 25 27.12 66.92153 0.002434927 1.0 40.0
1 170 141 2 26 10.848 67.01527 0.002434927 1.0 40.0
1 170 140 2 27 37.968 67.11487 0.002434927 1.0 40.0
1 170 139 2 28 5.424 67.28459 0.002434927 1.0 40.0
1 171 139 2 29 37.968 67.50076 0.002434927 1.0 40.0
1 172 139 2 30 8.136 67.73717 0.002434927 1.0 40.0
1 172 138 2 31 37.968 68.16116 0.002434927 1.0 40.0
1 173 138 2 32 27.12 68.457726 0.002434927 1.0 40.0
1 173 137 2 33 27.12 68.88131 0.002434927 1.0 40.0
1 174 137 2 34 13.56 69.204 0.002434927 1.0 40.0
1 174 136 2 35 27.12 69.66419 0.002434927 1.0 40.0
1 175 136 2 36 37.968 69.93489 0.002434927 1.0 40.0
1 175 135 2 37 5.424 70.38313 0.002434927 1.0 40.0
1 176 135 2 38 37.968 70.54897 0.002434927 1.0 40.0
1 176 134 2 39 35.256 70.87711 0.002434927 1.0 40.0
1 176 133 2 40 27.12 70.996544 0.003645858 1.0 40.0
1 176 132 2 41 27.12 70.94819 0.003645858 1.0 40.0
1 176 131 2 42 27.12 70.61011 0.003645858 1.0 40.0
1 176 130 2 43 27.12 70.14122 0.003645858 1.0 40.0
1 176 129 2 44 27.12 69.55381 0.003645858 1.0 40.0
1 176 128 2 45 27.12 68.90607 0.003645858 1.0 40.0
1 176 127 2 46 27.12 68.2533 0.003645858 1.0 40.0
1 176 126 2 47 27.12 67.64097 0.003645858 1.0 40.0
1 176 125 2 48 2.712 67.12483 0.003645858 1.0 40.0
1 177 125 2 49 32.544 67.10098 0.003645858 1.0 40.0
1 177 124 2 50 35.256 66.66653 0.003645858 1.0 40.0
1 177 123 2 51 37.968 66.287476 0.003645858 1.0 40.0
1 177 122 2 52 10.848 66.13149 0.003645858 1.0 40.0
1 178 122 2 53 27.12 66.15086 0.003645858 1.0 40.0
1 178 121 2 54 35.256 66.12164 0.003645858 1.0 40.0
1 178 120 2 55 35.256 66.19289 0.003645858 1.0 40.0
1 179 120 2 56 5.424 66.28656 0.003645858 1.0 40.0
1 179 119 2 57 35.256 66.48349 0.003645858 1.0 40.0
1 179 118 2 58 35.256 66.73197 0.003645858 1.0 40.0
1 179 117 2 59 35.256 66.99196 0.003645858 1.0 40.0
1 179 116 2 60 27.12 67.22543 0.003645858 1.0 40.0
1 180 116 2 61 8.136 67.40681 0.003645858 1.0 40.0
1 180 115 2 62 32.544 67.60981 0.003645858 1.0 40.0
1 180 114 2 63 27.12 67.62704 0.003645858 1.0 40.0
1 181 114 2 64 27.12 67.68903 0.003645858 1.0 40.0
1 181 113 2 65 27.12 67.50937 0.005419297 1.0 40.0
1 182 113 2 66 27.12 67.410126 0.005419297 1.0 40.0
1 183 113 2 67 27.12 67.16863 0.005419297 1.0 40.0
1 184 113 2 68 27.12 66.80685 0.005419297 1.0 40.0
1 185 113 2 69 27.12 66.24667 0.005419297 1.0 40.0
1 186 113 2 70 27.12 65.74228 0.005419297 1.0 40.0
1 187 113 2 71 27.12 65.23042 0.005419297 1.0 40.0
1 188 113 2 72 27.12 64.73655 0.005419297 1.0 40.0
1 189 113 2 73 27.12 64.27838 0.005419297 1.0 40.0
1 190 113 2 74 27.12 63.867126 0.005419297 1.0 40.0
1 191 113 2 75 13.56 63.527996 0.005419297 1.0 40.0
1 191 112 2 76 13.56 63.418224 0.005419297 1.0 40.0
1 192 112 2 77 29.832 63.12465 0.005419297 1.0 40.0
1 193 112 2 78 29.832 62.848736 0.005419297 1.0 40.0
1 194 112 2 79 29.832 62.684673 0.005419297 1.0 40.0
1 195 112 2 80 29.832 62.57798 0.005419297 1.0 40.0
1 196 112 2 81 29.832 62.527687 0.005419297 1.0 40.0
1 197 112 2 82 29.832 62.531967 0.005419297 1.0 40.0
1 198 112 2 83 8.136 62.617786 0.005419297 1.0 40.0
1 198 111 2 84 32.544 62.565727 0.005419297 1.0 40.0
1 199 111 2 85 35.256 62.676933 0.005419297 1.0 40.0
1 200 111 2 86 35.256 62.879894 0.005419297 1.0 40.0
1 201 111 2 87 8.136 63.093155 0.005419297 1.0 40.0
1 201 110 2 88 35.256 63.04114 0.005419297 1.0 40.0
1 202 110 2 89 35.256 63.221535 0.005419297 1.0 40.0
1 203 110 2 90 27.12 63.382095 0.005419297 1.0 40.0
1 204 110 2 91 27.12 63.4825 0.005419297 1.0 40.0
1 205 110 2 92 27.12 63.497944 0.005419297 1.0 40.0
1 206 110 2 93 8.136 63.41524 0.004055806 1.0 40.0
1 206 109 2 94 35.256 63.295094 0.004055806 1.0 40.0
1 207 109 2 95 35.256 63.115578 0.004055806 1.0 40.0
1 208 109 2 96 35.256 62.788292 0.004055806 1.0 40.0
1 209 109 2 97 8.136 62.487793 0.004055806 1.0 40.0
1 209 108 2 98 35.256 62.266193 0.004055806 1.0 40.0
1 210 108 2 99 32.544 61.936672 0.004055806 1.0 40.0
1 211 108 2 100 32.544 61.605743 0.004055806 1.0 40.0
1 211 107 2 101 13.56 61.431442 0.004055806 1.0 40.0
1 212 107 2 102 29.832 61.13918 0.004055806 1.0 40.0
1 213 107 2 103 29.832 60.870556 0.004055806 1.0 40.0
1 213 106 2 104 13.56 60.713856 0.004055806 1.0 40.0
1 214 106 2 105 37.968 60.48418 0.004055806 1.0 40.0
1 215 106 2 106 10.848 60.312798 0.004055806 1.0 40.0
1 215 105 2 107 32.544 60.15756 0.004055806 1.0 40.0
1 216 105 2 108 21.696 59.993862 0.004055806 1.0 40.0
1 216 104 2 109 5.424 59.87763 0.004055806 1.0 40.0
1 217 104 2 110 35.256 59.770058 0.004055806 1.0 40.0
1 217 103 2 111 8.136 59.660336 0.004055806 1.0 40.0
1 218 103 2 112 27.12 59.596 0.004055806 1.0 40.0
1 219 103 2 113 27.12 59.55341 0.004055806 1.0 40.0
1 220 103 2 114 27.12 59.530865 0.004055806 1.0 40.0
1 221 103 2 115 10.848 59.543056 0.004055806 1.0 40.0
1 221 104 2 116 32.544 59.5722 0.004055806 1.0 40.0
1 222 104 2 117 32.544 59.566223 0.004055806 1.0 40.0
1 223 104 2 118 29.832 59.583347 0.004055806 1.0 40.0
1 223 103 2 119 10.848 59.534706 0.004055806 1.0 40.0
1 224 103 2 120 37.968 59.552906 0.004055806 1.0 40.0
1 224 102 2 121 8.136 59.53879 0.004055806 1.0 40.0
1 225 102 2 122 37.968 59.577774 0.004055806 1.0 40.0
1 226 102 2 123 8.136 59.641537 0.004055806 1.0 40.0
1 226 101 2 124 37.968 59.643944 0.004055806 1.0 40.0
1 227 101 2 125 10.848 59.70647 0.004055806 1.0 40.0
1 227 100 2 126 27.12 59.721912 0.004055806 1.0 40.0
1 228 100 2 127 32.544 59.738384 0.004055806 1.0 40.0
1 228 99 2 128 27.12 59.66789 0.003664115 1.0 40.0
1 229 99 2 129 13.56 59.650726 0.003664115 1.0 40.0
1 229 98 2 130 37.968 59.534325 0.003664115 1.0 40.0
1 229 97 2 131 10.848 59.379917 0.003664115 1.0 40.0
1 230 97 2 132 27.12 59.28676 0.003664115 1.0 40.0
1 230 96 2 133 32.544 59.063038 0.003664115 1.0 40.0
1 230 95 2 134 32.544 58.80731 0.003664115 1.0 40.0
1 230 94 2 135 5.424 58.563736 0.003664115 1.0 40.0
1 231 94 2 136 32.544 58.417274 0.003664115 1.0 40.0
1 231 93 2 137 32.544 58.16804 0.003664115 1.0 40.0
1 231 92 2 138 32.544 57.890846 0.003664115 1.0 40.0
1 231 91 2 139 16.272 57.71112 0.003664115 1.0 40.0
1 232 91 2 140 16.272 57.645203 0.003664115 1.0 40.0
1 232 90 2 141 37.968 57.50306 0.003664115 1.0 40.0
1 233 90 2 142 13.56 57.464413 0.003664115 1.0 40.0
1 233 89 2 143 35.256 57.388897 0.003664115 1.0 40.0
1 233 88 2 144 32.544 57.349438 0.003664115 1.0 40.0
1 234 88 2 145 13.56 57.36644 0.003664115 1.0 40.0
1 234 87 2 146 32.544 57.376423 0.003664115 1.0 40.0
1 234 86 2 147 35.256 57.38945 0.003664115 1.0 40.0
1 234 85 2 148 8.136 57.418583 0.003664115 1.0 40.0
1 235 85 2 149 32.544 57.470154 0.003664115 1.0 40.0
1 235 84 2 150 32.544 57.438976 0.003664115 1.0 40.0
1 235 83 2 151 32.544 57.356564 0.003664115 1.0 40.0
1 235 82 2 152 32.544 57.22084 0.003664115 1.0 40.0
1 235 81 2 153 32.544 57.03735 0.003664115 1.0 40.0
1 235 80 2 154 32.544 56.816624 0.003664115 1.0 40.0
1 235 79 2 155 32.544 56.57122 0.003664115 1.0 40.0
1 235 78 2 156 27.12 56.31859 0.003664115 1.0 40.0
1 236 78 2 157 5.424 56.324028 0.003664115 1.0 40.0
1 236 77 2 158 37.968 55.9939 0.003664115 1.0 40.0
1 236 76 2 159 18.984 55.75202 0.003664115 1.0 40.0
1 237 76 2 160 18.984 55.711166 0.003664115 1.0 40.0
1 237 75 2 161 35.256 55.47198 0.003664115 1.0 40.0
1 237 74 2 162 8.136 55.282547 0.003664115 1.0 40.0
1 237 73 2 163 27.12 55.103157 0.003664115 1.0 40.0
1 238 73 2 164 35.256 55.045425 0.003664115 1.0 40.0
1 238 72 2 165 35.256 54.897636 0.003664115 1.0 40.0
1 238 71 2 166 13.56 54.80408 0.003664115 1.0 40.0
1 239 71 2 167 37.968 54.75461 0.003664115 1.0 40.0
1 239 70 2 168 18.984 54.707146 0.003664115 1.0 40.0
1 240 70 2 169 13.56 54.688873 0.003664115 1.0 40.0
1 240 69 2 170 35.256 54.684456 0.003664115 1.0 40.0
1 240 68 2 171 16.272 54.691692 0.003731877 1.0 40.0
1 241 68 2 172 18.984 54.683002 0.003731877 1.0 40.0
1 241 67 2 173 35.256 54.73699 0.003731877 1.0 40.0
1 241 66 2 174 32.544 54.799835 0.003731877 1.0 40.0
1 241 65 2 175 5.424 54.87804 0.003731877 1.0 40.0
1 242 65 2 176 32.544 54.84511 0.003731877 1.0 40.0
1 242 64 2 177 32.544 54.87068 0.003731877 1.0 40.0
1 242 63 2 178 32.544 54.85156 0.003731877 1.0 40.0
1 242 62 2 179 32.544 54.75892 0.003731877 1.0 40.0
1 242 61 2 180 32.544 54.616158 0.003731877 1.0 40.0
1 242 60 2 181 2.712 54.453514 0.003731877 1.0 40.0
1 243 60 2 182 32.544 54.36676 0.003731877 1.0 40.0
1 243 59 2 183 32.544 54.13929 0.003731877 1.0 40.0
1 243 58 2 184 35.256 53.885483 0.003731877 1.0 40.0
1 243 57 2 185 32.544 53.62296 0.003731877 1.0 40.0
1 243 56 2 186 27.12 53.364872 0.003731877 1.0 40.0
1 243 55 2 187 32.544 53.10898 0.003731877 1.0 40.0
1 243 54 2 188 37.968 52.810738 0.003731877 1.0 40.0
1 243 53 2 189 5.424 52.615578 0.003731877 1.0 40.0
1 244 53 2 190 32.544 52.533676 0.003731877 1.0 40.0
1 244 52 2 191 32.544 52.33989 0.003731877 1.0 40.0
1 244 51 2 192 32.544 52.16653 0.003731877 1.0 40.0
1 245 51 2 193 8.136 52.119938 0.003731877 1.0 40.0
1 245 50 2 194 35.256 51.9759 0.003731877 1.0 40.0
1 245 49 2 195 35.256 51.851364 0.003731877 1.0 40.0
1 245 48 2 196 8.136 51.770256 0.003731877 1.0 40.0
1 246 48 2 197 27.12 51.74727 0.003731877 1.0 40.0
1 246 47 2 198 35.256 51.674603 0.003731877 1.0 40.0
1 246 46 2 199 16.272 51.624893 0.003731877 1.0 40.0
1 247 46 2 200 18.984 51.654644 0.003731877 1.0 40.0
1 247 45 2 201 32.544 51.61818 0.003731877 1.0 40.0
1 248 45 2 202 27.12 51.6669 0.003731877 1.0 40.0
1 249 45 2 203 27.12 51.69055 0.004198622 1.0 40.0
1 250 45 2 204 27.12 51.74573 0.004198622 1.0 40.0
1 251 45 2 205 27.12 51.794853 0.004198622 1.0 40.0
1 251 44 2 206 8.136 51.842667 0.004198622 1.0 40.0
1 252 44 2 207 37.968 51.877117 0.004198622 1.0 40.0
1 253 44 2 208 27.12 51.889645 0.004198622 1.0 40.0
1 253 43 2 209 16.272 51.914253 0.004198622 1.0 40.0
1 254 43 2 210 37.968 51.860855 0.004198622 1.0 40.0
1 255 43 2 211 5.424 51.777115 0.004198622 1.0 40.0
1 255 42 2 212 37.968 51.722237 0.004198622 1.0 40.0
1 256 42 2 213 27.12 51.550964 0.004198622 1.0 40.0
1 256 41 2 214 10.848 51.46554 0.004198622 1.0 40.0
1 257 41 2 215 37.968 51.232304 0.004198622 1.0 40.0
1 258 41 2 216 5.424 51.000046 0.004198622 1.0 40.0
1 258 40 2 217 32.544 50.85707 0.004198622 1.0 40.0
1 259 40 2 218 35.256 50.585705 0.004198622 1.0 40.0
1 260 40 2 219 10.848 50.339775 0.004198622 1.0 40.0
1 260 39 2 220 35.256 50.198177 0.004198622 1.0 40.0
1 261 39 2 221 35.256 49.951263 0.004198622 1.0 40.0
1 262 39 2 222 35.256 49.677666 0.004198622 1.0 40.0
1 262 38 2 223 5.424 49.579277 0.004198622 1.0 40.0
1 263 38 2 224 35.256 49.395844 0.004198622 1.0 40.0
1 264 38 2 225 35.256 49.235527 0.004198622 1.0 40.0
1 265 38 2 226 35.256 49.09903 0.004198622 1.0 40.0
1 265 37 2 227 5.424 49.05976 0.004198622 1.0 40.0
1 266 37 2 228 27.12 48.96435 0.004198622 1.0 40.0
1 267 37 2 229 13.56 48.904053 0.004198622 1.0 40.0
1 267 38 2 230 16.272 48.902985 0.004198622 1.0 40.0
1 268 38 2 231 27.12 48.839428 0.004198622 1.0 40.0
1 269 38 2 232 27.12 48.78921 0.004198622 1.0 40.0
1 270 38 2 233 27.12 48.754887 0.004198622 1.0 40.0
1 271 38 2 234 27.12 48.7208 0.004198622 1.0 40.0
1 272 38 2 235 27.12 48.663708 0.004198622 1.0 40.0
1 272 37 2 236 5.424 48.709507 0.004198622 1.0 40.0
1 273 37 2 237 32.544 48.572716 0.004198622 1.0 40.0
1 274 37 2 238 35.256 48.558758 0.004198622 1.0 40.0
1 274 36 2 239 5.424 48.56454 0.004198622 1.0 40.0
1 275 36 2 240 35.256 48.504208 0.004198622 1.0 40.0
1 275 35 2 241 5.424 48.485104 0.004198622 1.0 40.0
1 275 34 2 242 35.256 48.41686 0.004198622 1.0 40.0
1 276 34 2 243 16.272 48.343452 0.004198622 1.0 40.0
1 276 33 2 244 18.984 48.26748 0.004198622 1.0 40.0
1 277 33 2 245 16.272 48.143932 0.004198622 1.0 40.0
1 277 32 2 246 18.984 48.041748 0.004198622 1.0 40.0
1 278 32 2 247 8.136 47.918266 0.004198622 1.0 40.0
1 278 31 2 248 27.12 47.760124 0.004198622 1.0 40.0
1 279 31 2 249 5.424 47.612778 0.004198622 1.0 40.0
1 279 30 2 250 37.968 47.456627 0.004198622 1.0 40.0
1 279 29 2 251 5.424 47.340298 0.004198622 1.0 40.0
1 280 29 2 252 37.968 47.136055 0.004198622 1.0 40.0
1 280 28 2 253 5.424 47.031834 0.004198622 1.0 40.0
1 281 28 2 254 37.968 46.824806 0.004198622 1.0 40.0
1 281 27 2 255 5.424 46.747314 0.004198622 1.0 40.0
1 282 27 2 256 37.968 46.554188 0.004198622 1.0 40.0
1 282 26 2 257 18.984 46.499718 0.004198622 1.0 40.0
1 283 26 2 258 18.984 46.3575 0.004198622 1.0 40.0
1 283 25 2 259 18.984 46.34194 0.004198622 1.0 40.0
1 284 25 2 260 18.984 46.23931 0.004198622 1.0 40.0
1 284 24 2 261 18.984 46.251343 0.004198622 1.0 40.0
1 284 23 2 262 18.984 46.279 0.004198622 1.0 40.0
1 285 23 2 263 18.984 46.206173 0.004198622 1.0 40.0
1 285 22 2 264 18.984 46.216694 0.004198622 1.0 40.0
1 286 22 2 265 18.984 46.167202 0.004198622 1.0 40.0
1 286 21 2 266 18.984 46.155914 0.004198622 1.0 40.0
1 286 20 2 267 18.984 46.128525 0.004198622 1.0 40.0
1 287 20 2 268 18.984 46.063114 0.004198622 1.0 40.0
1 287 19 2 269 18.984 46.007538 0.004198622 1.0 40.0
1 288 19 2 270 18.984 45.927986 0.004198622 1.0 40.0
1 288 18 2 271 18.984 45.84412 0.004198622 1.0 40.0
1 289 18 2 272 18.984 45.748516 0.004198622 1.0 40.0
1 289 17 2 273 18.984 45.637817 0.004198622 1.0 40.0
1 289 16 2 274 18.984 45.51629 0.004198622 1.0 40.0
1 290 16 2 275 18.984 45.393566 0.004198622 1.0 40.0
1 290 15 2 276 18.984 45.218353 0.004198622 1.0 40.0
1 290 14 2 277 18.984 45.070896 0.004198622 1.0 40.0
1 291 14 2 278 18.984 44.9276 0.004198622 1.0 40.0
1 291 13 2 279 18.984 44.771843 0.004198622 1.0 40.0
1 292 13 2 280 18.984 44.619415 0.004198622 1.0 40.0
1 292 12 2 281 18.984 44.46948 0.004198622 1.0 40.0
1 293 12 2 282 18.984 44.38087 0.004198622 1.0 40.0
1 293 11 2 283 18.984 44.257713 0.004198622 1.0 40.0
1 293 10 2 284 18.984 44.12924 0.006372447 1.0 40.0