# BAS6 package for MODFLOW-NWT generated by Flopy 3.7.0.dev0
FREE
OPEN/CLOSE  modelinputs/ibound_layer_1.ref               1   (529I10) -1 ibound layer 1                
OPEN/CLOSE  modelinputs/ibound_layer_2.ref               1   (529I10) -1 ibound layer 2                
OPEN/CLOSE  modelinputs/ibound_layer_3.ref               1   (529I10) -1 ibound layer 3                
    -888.0
OPEN/CLOSE    modelinputs/strt_layer_1.ref               1 (529E15.6) -1 strt layer 1                  
OPEN/CLOSE    modelinputs/strt_layer_2.ref               1 (529E15.6) -1 strt layer 2                  
OPEN/CLOSE    modelinputs/strt_layer_3.ref               1 (529E15.6) -1 strt layer 3                  
