# DIS package for MODFLOW-NWT generated by Flopy 3.7.0.dev0
         3       345       529        40         4         2
  0  0  0
OPEN/CLOSE            modelinputs/delr.ref               1 (529E15.6) -1 delr                          
OPEN/CLOSE            modelinputs/delc.ref               1 (345E15.6) -1 delc                          
OPEN/CLOSE       modelinputs/model_top.ref               1 (529E15.6) -1 model_top                     
OPEN/CLOSE    modelinputs/botm_layer_1.ref               1 (529E15.6) -1 botm layer 1                  
OPEN/CLOSE    modelinputs/botm_layer_2.ref               1 (529E15.6) -1 botm layer 2                  
OPEN/CLOSE    modelinputs/botm_layer_3.ref               1 (529E15.6) -1 botm layer 3                  
   1825.000000             5  1.000000  TR
   1825.000000             5  1.000000  TR
   1825.000000             5  1.000000  TR
   1825.000000             5  1.000000  TR
   1825.000000             5  1.000000  TR
   1825.000000             5  1.000000  TR
   1825.000000             5  1.000000  TR
   1825.000000             5  1.000000  TR
   1825.000000             5  1.000000  TR
   1825.000000             5  1.000000  TR
   1825.000000             5  1.000000  TR
   1825.000000             5  1.000000  TR
   1825.000000             5  1.000000  TR
   1825.000000             5  1.000000  TR
   1825.000000             5  1.000000  TR
   1825.000000             5  1.000000  TR
   1825.000000             5  1.000000  TR
   1825.000000             5  1.000000  TR
   1825.000000             5  1.000000  TR
   1825.000000             5  1.000000  TR
   1825.000000             5  1.000000  TR
   1825.000000             5  1.000000  TR
   1825.000000             5  1.000000  TR
   1825.000000             5  1.000000  TR
   1825.000000             5  1.000000  TR
   1825.000000             5  1.000000  TR
   1825.000000             5  1.000000  TR
   1825.000000             5  1.000000  TR
   1825.000000             5  1.000000  TR
   1825.000000             5  1.000000  TR
   1825.000000             5  1.000000  TR
   1825.000000             5  1.000000  TR
   1825.000000             5  1.000000  TR
   1825.000000             5  1.000000  TR
   1825.000000             5  1.000000  TR
   1825.000000             5  1.000000  TR
   1825.000000             5  1.000000  TR
   1825.000000             5  1.000000  TR
   1825.000000             5  1.000000  TR
   1825.000000             5  1.000000  TR
