## BTN for MT3DMS, generated by Flopy.
##
 MODFLOWSTYLEARRAYS DRYCELL
         3       345       529        40         4         4
D   M   KG  
T T T F T 
 1 3 3
      2001         1         (529E15.6)        -1 #delr
      2002         1         (345E15.6)        -1 #delc
      2003         1         (529E15.6)        -1 #htop
      2004         1         (529E15.6)        -1 #dz layer 1
      2005         1         (529E15.6)        -1 #dz layer 2
      2006         1         (529E15.6)        -1 #dz layer 3
      2007         1         (529E15.6)        -1 #prsity layer 1
      2008         1         (529E15.6)        -1 #prsity layer 2
      2009         1         (529E15.6)        -1 #prsity layer 3
      2010         1           (529I10)        -1 #icbund layer 1
      2011         1           (529I10)        -1 #icbund layer 2
      2012         1           (529I10)        -1 #icbund layer 3
      2013         1         (529E15.6)        -1 #sconc1 layer 1
      2014         1         (529E15.6)        -1 #sconc1 layer 2
      2015         1         (529E15.6)        -1 #sconc1 layer 3
      2016         1         (529E15.6)        -1 #sconc2 layer 1
      2017         1         (529E15.6)        -1 #sconc2 layer 2
      2018         1         (529E15.6)        -1 #sconc2 layer 3
      2019         1         (529E15.6)        -1 #sconc3 layer 1
      2020         1         (529E15.6)        -1 #sconc3 layer 2
      2021         1         (529E15.6)        -1 #sconc3 layer 3
      2022         1         (529E15.6)        -1 #sconc4 layer 1
      2023         1         (529E15.6)        -1 #sconc4 layer 2
      2024         1         (529E15.6)        -1 #sconc4 layer 3
    -1E+00  1.00E-06
         0         0         0         0         T
        -1
        27         1
         1       243       296
         2       243       296
         3       243       296
         1       207       109
         2       207       109
         3       207       109
         1        99       307
         2        99       307
         3        99       307
         1        69       527
         2        69       527
         3        69       527
         1       200       245
         2       200       245
         3       200       245
         1       148       255
         2       148       255
         3       148       255
         1       183       186
         2       183       186
         3       183       186
         1       246       237
         2       246       237
         3       246       237
         1       236       208
         2       236       208
         3       236       208
         T         1
      1825         5         1
     18.25       500         1       365
      1825         5         1
     18.25       500         1       365
      1825         5         1
     18.25       500         1       365
      1825         5         1
     18.25       500         1       365
      1825         5         1
     18.25       500         1       365
      1825         5         1
     18.25       500         1       365
      1825         5         1
     18.25       500         1       365
      1825         5         1
     18.25       500         1       365
      1825         5         1
     18.25       500         1       365
      1825         5         1
     18.25       500         1       365
      1825         5         1
     18.25       500         1       365
      1825         5         1
     18.25       500         1       365
      1825         5         1
     18.25       500         1       365
      1825         5         1
     18.25       500         1       365
      1825         5         1
     18.25       500         1       365
      1825         5         1
     18.25       500         1       365
      1825         5         1
     18.25       500         1       365
      1825         5         1
     18.25       500         1       365
      1825         5         1
     18.25       500         1       365
      1825         5         1
     18.25       500         1       365
      1825         5         1
     18.25       500         1       365
      1825         5         1
     18.25       500         1       365
      1825         5         1
     18.25       500         1       365
      1825         5         1
     18.25       500         1       365
      1825         5         1
     18.25       500         1       365
      1825         5         1
     18.25       500         1       365
      1825         5         1
     18.25       500         1       365
      1825         5         1
     18.25       500         1       365
      1825         5         1
     18.25       500         1       365
      1825         5         1
     18.25       500         1       365
      1825         5         1
     18.25       500         1       365
      1825         5         1
     18.25       500         1       365
      1825         5         1
     18.25       500         1       365
      1825         5         1
     18.25       500         1       365
      1825         5         1
     18.25       500         1       365
      1825         5         1
     18.25       500         1       365
      1825         5         1
     18.25       500         1       365
      1825         5         1
     18.25       500         1       365
      1825         5         1
     18.25       500         1       365
      1825         5         1
     18.25       500         1       365
